@<TRIPOS>MOLECULE
CTV
   26    25     1     0     0
SMALL
bcc


@<TRIPOS>ATOM
      1 C1          30.6270    27.6720    32.1000 c3         1 CTV      -0.059900
      2 N1          30.5090    32.1840    35.7570 n1         1 CTV      -0.376800
      3 C2          30.2300    29.6150    30.9390 c3         1 CTV      -0.059900
      4 C3          30.6840    28.9930    32.0470 c2         1 CTV      -0.116400
      5 C4          30.8130    29.8060    33.3460 c2         1 CTV      -0.182200
      6 C5          32.0310    29.8300    34.0700 c3         1 CTV      -0.038200
      7 C6          32.2080    28.5520    34.8220 c3         1 CTV      -0.059200
      8 C7          32.1150    28.6500    36.3870 c2         1 CTV      -0.041400
      9 C8          31.6150    29.8080    37.1420 ce         1 CTV      -0.089700
     10 C9          32.4810    27.3390    37.2810 c3         1 CTV      -0.072900
     11 C10         31.1110    30.9710    36.4680 cg         1 CTV       0.192500
     12 H9B         31.8110    26.5200    37.0180 hc         1 CTV       0.052367
     13 H9A         33.5110    27.0420    37.0860 hc         1 CTV       0.052367
     14 H9          32.3660    27.5760    38.3390 hc         1 CTV       0.052367
     15 H8          31.6270    29.7830    38.2320 ha         1 CTV       0.151000
     16 H6A         31.4540    27.8440    34.4780 hc         1 CTV       0.059200
     17 H6          33.1800    28.1330    34.5620 hc         1 CTV       0.059200
     18 H5A         32.8670    29.9770    33.3860 hc         1 CTV       0.051200
     19 H5          32.0350    30.6720    34.7630 hc         1 CTV       0.051200
     20 H4          29.9570    30.3710    33.7150 ha         1 CTV       0.125000
     21 H2B         30.8000    29.2780    30.0730 hc         1 CTV       0.041700
     22 H2A         29.1760    29.3770    30.7940 hc         1 CTV       0.041700
     23 H2          30.3460    30.6930    31.0530 hc         1 CTV       0.041700
     24 H1A         31.2140    27.2490    31.2850 hc         1 CTV       0.041700
     25 H15         29.5900    27.3480    32.0060 hc         1 CTV       0.041700
     26 H1          31.0290    27.3280    33.0530 hc         1 CTV       0.041700
@<TRIPOS>BOND
     1     1     4 1   
     2     1    24 1   
     3     1    25 1   
     4     1    26 1   
     5     2    11 3   
     6     3     4 1   
     7     3    21 1   
     8     3    22 1   
     9     3    23 1   
    10     4     5 2   
    11     5     6 1   
    12     5    20 1   
    13     6     7 1   
    14     6    18 1   
    15     6    19 1   
    16     7     8 1   
    17     7    16 1   
    18     7    17 1   
    19     8     9 2   
    20     8    10 1   
    21     9    11 1   
    22     9    15 1   
    23    10    12 1   
    24    10    13 1   
    25    10    14 1   
@<TRIPOS>SUBSTRUCTURE
     1 CTV         1 TEMP              0 ****  ****    0 ROOT
