@<TRIPOS>MOLECULE
EOL
   24    24     1     0     0
SMALL
bcc


@<TRIPOS>ATOM
      1 C1          31.1070    34.3150    33.3950 ca       120 EOL      -0.171000
      2 O1          31.3580    31.8300    36.0520 oh       120 EOL      -0.476100
      3 C2          31.2670    33.4950    32.2730 ca       120 EOL      -0.077300
      4 O2          30.9730    34.4900    35.8170 os       120 EOL      -0.304900
      5 C3          31.1510    33.7470    34.6660 ca       120 EOL       0.101100
      6 C4          31.4930    32.1300    32.4280 ca       120 EOL      -0.120000
      7 C5          31.3280    32.3790    34.8070 ca       120 EOL       0.100100
      8 C6          31.5190    31.5620    33.6970 ca       120 EOL      -0.188000
      9 C7          31.2020    34.0740    30.8950 c3       120 EOL      -0.002900
     10 C8          32.0880    35.2230    30.5850 c2       120 EOL      -0.171200
     11 C9          33.2650    35.3590    31.2550 c2       120 EOL      -0.215000
     12 C10         30.8200    35.8590    35.7450 c3       120 EOL       0.110700
     13 H1          30.9510    35.3770    33.2770 ha       120 EOL       0.142000
     14 H4          31.6490    31.5090    31.5580 ha       120 EOL       0.136000
     15 H6          31.6850    30.5020    33.8190 ha       120 EOL       0.135000
     16 H72         31.4480    33.2760    30.1950 hc       120 EOL       0.054200
     17 H73         30.1730    34.3810    30.7070 hc       120 EOL       0.054200
     18 H8          31.8020    35.9450    29.8350 ha       120 EOL       0.116000
     19 H91         33.5470    34.6340    32.0050 ha       120 EOL       0.116000
     20 H92         33.9170    36.1920    31.0370 ha       120 EOL       0.116000
     21 H101        30.7260    36.2680    36.7510 h1       120 EOL       0.043700
     22 H102        31.6900    36.2960    35.2550 h1       120 EOL       0.043700
     23 H103        29.9230    36.0950    35.1720 h1       120 EOL       0.043700
     24 HO1         30.6700    31.1650    36.1250 ho       120 EOL       0.414000
@<TRIPOS>BOND
     1     1     3 ar  
     2     1     5 ar  
     3     1    13 1   
     4     2     7 1   
     5     2    24 1   
     6     3     6 ar  
     7     3     9 1   
     8     4     5 1   
     9     4    12 1   
    10     5     7 ar  
    11     6     8 ar  
    12     6    14 1   
    13     7     8 ar  
    14     8    15 1   
    15     9    10 1   
    16     9    16 1   
    17     9    17 1   
    18    10    11 2   
    19    10    18 1   
    20    11    19 1   
    21    11    20 1   
    22    12    21 1   
    23    12    22 1   
    24    12    23 1   
@<TRIPOS>SUBSTRUCTURE
     1 EOL         1 TEMP              0 ****  ****    0 ROOT
